Version 4
SHEET 1 1108 1012
WIRE 160 -96 -64 -96
WIRE 240 -96 160 -96
WIRE 400 -96 272 -96
WIRE 624 -96 480 -96
WIRE 720 -96 624 -96
WIRE 880 -96 784 -96
WIRE 960 -96 880 -96
WIRE 1024 -96 960 -96
WIRE -64 -48 -64 -96
WIRE 160 -48 160 -96
WIRE 256 16 256 -80
WIRE 304 16 256 16
WIRE 352 16 304 16
WIRE 880 16 880 -96
WIRE -144 48 -576 48
WIRE -64 48 -64 16
WIRE -64 48 -144 48
WIRE 1024 64 1024 -96
WIRE -576 80 -576 48
WIRE 624 80 624 -96
WIRE 880 144 880 80
WIRE 320 160 288 160
WIRE 368 160 320 160
WIRE 512 160 432 160
WIRE 576 160 512 160
WIRE -576 192 -576 160
WIRE 96 192 -576 192
WIRE 160 192 160 16
WIRE 160 192 96 192
WIRE 400 224 400 176
WIRE 624 224 624 176
WIRE 624 224 400 224
WIRE -64 240 -64 48
WIRE 160 240 160 192
WIRE -64 352 -64 304
WIRE 160 352 160 304
WIRE 160 352 -64 352
WIRE 624 352 624 224
WIRE 624 352 160 352
WIRE 880 352 880 224
WIRE 880 352 624 352
WIRE 1024 352 1024 144
WIRE 1024 352 880 352
WIRE 160 400 160 352
WIRE 352 512 240 512
WIRE 352 576 352 512
WIRE 416 576 352 576
WIRE 416 608 352 608
WIRE 688 608 624 608
WIRE 720 608 688 608
WIRE 416 640 384 640
WIRE 352 672 352 608
WIRE 352 672 240 672
WIRE 208 768 176 768
WIRE 384 768 384 640
WIRE 384 768 208 768
FLAG 160 400 0
FLAG -144 48 ac1
FLAG 96 192 ac2
FLAG 304 16 isen
FLAG 208 768 isen
FLAG 320 160 drv
FLAG 512 160 gate
FLAG 688 608 drv
FLAG 960 -96 out
SYMBOL voltage -576 64 R0
WINDOW 123 0 0 Left 0
WINDOW 39 0 0 Left 0
SYMATTR InstName V1
SYMATTR Value SINE(0 {230*sqrt(2)} 50)
SYMBOL cap 864 16 R0
SYMATTR InstName C1
SYMATTR Value 100µ
SYMBOL res 1008 48 R0
SYMATTR InstName R1
SYMATTR Value 1600
SYMBOL ind 384 -80 R270
WINDOW 0 39 49 VTop 2
WINDOW 3 5 56 VBottom 2
SYMATTR InstName L1
SYMATTR Value 1.32m
SYMBOL Control\\isense 256 -96 R0
SYMATTR InstName U9
SYMBOL MyTonC 416 656 R0
SYMATTR InstName U6
SYMBOL Control\\constant 208 512 R0
WINDOW 3 -7 65 Bottom 2
SYMATTR Value K=5
SYMATTR InstName U7
SYMBOL Control\\constant 208 672 R0
WINDOW 3 -2 62 Bottom 2
SYMATTR Value K=1m
SYMATTR InstName U10
SYMBOL diode -48 16 R180
WINDOW 0 24 64 Left 2
WINDOW 3 42 29 Left 2
SYMATTR InstName D1
SYMATTR Value RFN10NS4S
SYMBOL diode 176 16 R180
WINDOW 0 24 64 Left 2
WINDOW 3 49 29 Left 2
SYMATTR InstName D2
SYMATTR Value RFN10NS4S
SYMBOL diode -48 304 R180
WINDOW 0 24 64 Left 2
WINDOW 3 42 29 Left 2
SYMATTR InstName D3
SYMATTR Value RFN10NS4S
SYMBOL diode 176 304 R180
WINDOW 0 24 64 Left 2
WINDOW 3 42 29 Left 2
SYMATTR InstName D4
SYMATTR Value RFN10NS4S
SYMBOL nmos 576 80 R0
SYMATTR InstName M1
SYMATTR Value R6020PNJ
SYMBOL Control\\driver 400 160 R0
WINDOW 3 49 44 Bottom 2
SYMATTR Value k=15
SYMATTR InstName U1
SYMBOL diode 720 -80 R270
WINDOW 0 32 32 VTop 2
WINDOW 3 0 32 VBottom 2
SYMATTR InstName D5
SYMATTR Value RFN10NS4S
SYMBOL res 864 128 R0
SYMATTR InstName R2
SYMATTR Value 0.05
TEXT -568 -128 Left 2 !.tran 0 800m 0 0.1u uic
TEXT -568 -80 Left 2 !.options reltol=0.1m
