Version 4
SHEET 1 2900 1052
WIRE 864 -368 720 -368
WIRE 928 -368 864 -368
WIRE 720 -304 720 -368
WIRE 720 -192 720 -224
WIRE 1248 -96 720 -96
WIRE 1328 -96 1248 -96
WIRE 1392 -96 1328 -96
WIRE 1248 16 1248 -96
WIRE 1392 48 1392 -96
WIRE 720 64 720 -96
WIRE 1248 128 1248 80
WIRE 720 320 720 144
WIRE 1248 320 1248 208
WIRE 1248 320 720 320
WIRE 1392 320 1392 128
WIRE 1392 320 1248 320
WIRE 720 384 720 320
FLAG 1328 -96 o
FLAG 720 -192 0
FLAG 864 -368 ton
FLAG 720 384 0
SYMBOL Misc\\Gpoly 720 48 R0
SYMATTR InstName G1
SYMATTR Value value={v(ton)*Vg**2/(4*v(o)*L)}
SYMBOL cap 1232 16 R0
SYMATTR InstName Co
SYMATTR Value 100µ
SYMBOL res 1376 32 R0
SYMATTR InstName RL
SYMATTR Value 1600
SYMBOL voltage 720 -320 R0
WINDOW 0 49 39 Left 2
WINDOW 3 40 72 Left 2
SYMATTR InstName V1
SYMATTR Value 5.5e-6
SYMBOL res 1232 112 R0
SYMATTR InstName Resr
SYMATTR Value 0.05
TEXT 1016 -296 Left 2 !.param L=1.32m\n.param Vg=sqrt(2)*230
TEXT 1016 -352 Left 2 !.tran 1 uic
