Version 4
SHEET 1 2900 1052
WIRE 192 -368 48 -368
WIRE 256 -368 192 -368
WIRE 48 -336 48 -368
WIRE 48 -240 48 -256
WIRE 48 -128 48 -160
WIRE 576 -32 48 -32
WIRE 656 -32 576 -32
WIRE 720 -32 656 -32
WIRE 576 80 576 -32
WIRE 720 112 720 -32
WIRE 48 128 48 -32
WIRE 576 192 576 144
WIRE 48 384 48 208
WIRE 576 384 576 272
WIRE 576 384 48 384
WIRE 720 384 720 192
WIRE 720 384 576 384
WIRE 48 448 48 384
FLAG 656 -32 o
FLAG 48 -128 0
FLAG 192 -368 ton
FLAG 48 448 0
SYMBOL Misc\\Gpoly 48 112 R0
SYMATTR InstName G1
SYMATTR Value value={v(ton)*Vg**2/(4*v(o)*L)}
SYMBOL cap 560 80 R0
SYMATTR InstName Co
SYMATTR Value 100µ
SYMBOL res 704 96 R0
SYMATTR InstName RL
SYMATTR Value 1600
SYMBOL voltage 48 -256 R0
WINDOW 0 49 39 Left 2
WINDOW 3 40 72 Left 2
SYMATTR InstName V1
SYMATTR Value 5e-6
SYMBOL res 560 176 R0
SYMATTR InstName Resr
SYMATTR Value 0.05
SYMBOL voltage 48 -352 R0
WINDOW 0 43 43 Left 2
WINDOW 3 44 77 Left 2
WINDOW 123 0 0 Left 0
WINDOW 39 0 0 Left 0
SYMATTR InstName Vsin1
SYMATTR Value SINE(0 0.25e-6 {Freq})
TEXT 248 -128 Left 2 !.param L=1.32m\n.param Vg=sqrt(2)*230
TEXT 968 56 Left 2 !.measure Aavg              avg       V(o)                                                                ; average output voltage\n.measure Bavg              avg       V(ton)                                                                   ; average input signal\n.measure Are                  avg       2*(V(o)-Aavg)*cos(360*Freq*time)      ; A real part\n.measure Aim                 avg       2*(V(o)-Aavg)*sin(360*Freq*time)        ; A imag part\n.measure Bre                  avg       2*(V(ton)-Bavg)*cos(360*Freq*time)         ; B real part\n.measure Bim                 avg        2*(V(ton)-Bavg)*sin(360*Freq*time)          ; B imag part\n.measure Amag             param   hypot(Are,Aim)                                              ; A magnitude\n.measure Bmag             param   hypot(Bre,Bim)                                              ; B magnitude\n.measure Aphi                param   atan2(Aim, Are)                                             ; A phase\n.measure Bphi                param   atan2(Bim, Bre)                                             ; B phase\n.measure GainMag       param    20*log10(Amag/Bmag)                              ; Gain magnitude\n.measure GainPhi          param    Bphi - Aphi                                                       ; Gain phase
TEXT 1400 -72 Left 2 !.save V(o) V(ton)\n.option numdgt=15   ; double precision for data\n.option nomarch       ; do not plot marching waveforms
TEXT 960 -64 Left 2 !.step dec param Freq 1 50k 5
TEXT 960 -176 Left 2 !.param t0=500m\n.tran 0 {t0+5/Freq} {t0} 0.1u
