Version 4
SHEET 1 2564 1580
WIRE 832 -112 608 -112
WIRE 912 -112 832 -112
WIRE 1072 -112 944 -112
WIRE 1296 -112 1152 -112
WIRE 1392 -112 1296 -112
WIRE 1552 -112 1456 -112
WIRE 1632 -112 1552 -112
WIRE 1696 -112 1632 -112
WIRE 608 -64 608 -112
WIRE 832 -64 832 -112
WIRE 928 0 928 -96
WIRE 976 0 928 0
WIRE 1024 0 976 0
WIRE 1552 0 1552 -112
WIRE 528 32 96 32
WIRE 608 32 608 0
WIRE 608 32 528 32
WIRE 1696 48 1696 -112
WIRE 96 64 96 32
WIRE 1296 64 1296 -112
WIRE 1552 128 1552 64
WIRE 992 144 960 144
WIRE 1040 144 992 144
WIRE 1184 144 1104 144
WIRE 1248 144 1184 144
WIRE 96 176 96 144
WIRE 768 176 96 176
WIRE 832 176 832 0
WIRE 832 176 768 176
WIRE 1072 208 1072 160
WIRE 1296 208 1296 160
WIRE 1296 208 1072 208
WIRE 608 224 608 32
WIRE 832 224 832 176
WIRE 608 336 608 288
WIRE 832 336 832 288
WIRE 832 336 608 336
WIRE 1296 336 1296 208
WIRE 1296 336 832 336
WIRE 1552 336 1552 208
WIRE 1552 336 1296 336
WIRE 1696 336 1696 128
WIRE 1696 336 1552 336
WIRE 832 384 832 336
WIRE 304 464 160 464
WIRE 512 464 368 464
WIRE 576 464 512 464
WIRE 240 624 160 624
WIRE 336 624 336 496
WIRE 336 624 240 624
WIRE 1216 672 1120 672
WIRE 1248 672 1216 672
WIRE 1248 752 1248 672
WIRE 1344 752 1248 752
WIRE 1472 752 1408 752
WIRE 1888 752 1472 752
WIRE 1952 752 1888 752
WIRE 2112 752 2048 752
WIRE 2176 752 2112 752
WIRE 912 784 608 784
WIRE 1040 784 976 784
WIRE 1200 784 1104 784
WIRE 1232 784 1200 784
WIRE 1344 784 1232 784
WIRE 1888 800 1856 800
WIRE 1952 800 1888 800
WIRE 1200 848 1200 784
WIRE 224 928 144 928
WIRE 288 928 224 928
WIRE 1200 976 1200 928
WIRE 288 992 288 928
WIRE 400 992 288 992
WIRE 560 1008 464 1008
WIRE 608 1008 608 784
WIRE 608 1008 560 1008
WIRE 400 1024 288 1024
WIRE 1472 1024 1472 752
WIRE 1472 1024 1104 1024
WIRE 160 1072 80 1072
WIRE 288 1072 288 1024
WIRE 288 1072 160 1072
WIRE 1104 1072 1104 1024
WIRE 912 1120 848 1120
WIRE 944 1120 912 1120
WIRE 1056 1120 944 1120
WIRE 1248 1120 1152 1120
WIRE 1392 1120 1248 1120
WIRE 1568 1120 1392 1120
WIRE 1680 1120 1632 1120
WIRE 1760 1120 1680 1120
WIRE 1856 1136 1856 800
WIRE 1856 1136 1824 1136
WIRE 1760 1152 1728 1152
WIRE 1248 1184 1248 1120
WIRE 1392 1248 1344 1248
WIRE 1472 1248 1392 1248
WIRE 1568 1248 1536 1248
WIRE 1600 1248 1600 1152
WIRE 1600 1248 1568 1248
WIRE 1248 1296 1248 1248
WIRE 912 1360 912 1120
WIRE 1728 1360 1728 1152
WIRE 1728 1360 912 1360
FLAG 832 384 0
FLAG 528 32 ac1
FLAG 768 176 ac2
FLAG 976 0 isen
FLAG 992 144 drv
FLAG 1184 144 gate
FLAG 1632 -112 out
FLAG 160 1072 isen
FLAG 224 928 iv
FLAG 560 1008 clk
FLAG 512 464 ton
FLAG 1888 752 set
FLAG 1200 976 0
FLAG 1232 784 trig
FLAG 1248 1296 0
FLAG 1392 1120 st
FLAG 1888 800 reset
FLAG 1216 672 h
FLAG 1680 1120 ut
FLAG 944 1120 ta
FLAG 1568 1248 ts1
FLAG 1392 1248 ton
FLAG 2112 752 drv
FLAG 240 624 step
SYMBOL voltage 96 48 R0
WINDOW 123 0 0 Left 0
WINDOW 39 0 0 Left 0
SYMATTR InstName V1
SYMATTR Value SINE(0 {230*sqrt(2)} 50)
SYMBOL cap 1536 0 R0
SYMATTR InstName C1
SYMATTR Value 100µ
SYMBOL res 1680 32 R0
SYMATTR InstName R1
SYMATTR Value 1600
SYMBOL ind 1056 -96 R270
WINDOW 0 39 49 VTop 2
WINDOW 3 5 56 VBottom 2
SYMATTR InstName L1
SYMATTR Value 1.32m
SYMBOL Control\\isense 928 -112 R0
SYMATTR InstName U9
SYMBOL diode 624 0 R180
WINDOW 0 24 64 Left 2
WINDOW 3 42 29 Left 2
SYMATTR InstName D1
SYMATTR Value RFN10NS4S
SYMBOL diode 848 0 R180
WINDOW 0 24 64 Left 2
WINDOW 3 49 29 Left 2
SYMATTR InstName D2
SYMATTR Value RFN10NS4S
SYMBOL diode 624 288 R180
WINDOW 0 24 64 Left 2
WINDOW 3 42 29 Left 2
SYMATTR InstName D3
SYMATTR Value RFN10NS4S
SYMBOL diode 848 288 R180
WINDOW 0 24 64 Left 2
WINDOW 3 42 29 Left 2
SYMATTR InstName D4
SYMATTR Value RFN10NS4S
SYMBOL nmos 1248 64 R0
SYMATTR InstName M1
SYMATTR Value R6020PNJ
SYMBOL Control\\driver 1072 144 R0
WINDOW 3 49 44 Bottom 2
SYMATTR Value k=15
SYMATTR InstName U1
SYMBOL diode 1392 -96 R270
WINDOW 0 32 32 VTop 2
WINDOW 3 0 32 VBottom 2
SYMATTR InstName D5
SYMATTR Value RFN10NS4S
SYMBOL res 1536 112 R0
SYMATTR InstName R2
SYMATTR Value 0.05
SYMBOL Control\\comp 432 1008 R0
WINDOW 3 -27 59 Left 2
WINDOW 123 -27 81 Left 2
WINDOW 0 6 -52 Left 2
WINDOW 38 0 -30 Left 2
SYMATTR Value Vhigh=1
SYMATTR Value2 Vlow=0
SYMATTR InstName U2
SYMBOL Control\\constant 112 928 R0
WINDOW 3 10 64 Bottom 2
SYMATTR Value K=1m
SYMATTR InstName U3
SYMBOL Digital\\srflop 2000 704 R0
SYMATTR InstName A1
SYMBOL Digital\\and 1376 704 R0
SYMATTR InstName A2
SYMBOL res 1216 944 R180
WINDOW 0 36 76 Left 2
WINDOW 3 36 40 Left 2
SYMATTR InstName R3
SYMATTR Value 1
SYMBOL cap 1040 800 R270
WINDOW 0 32 32 VTop 2
WINDOW 3 0 32 VBottom 2
SYMATTR InstName C2
SYMATTR Value 10n
SYMBOL Control\\constant 1088 672 R0
WINDOW 3 56 42 Bottom 2
SYMATTR InstName U6
SYMBOL Control\\time 816 1120 R0
SYMATTR InstName U7
SYMBOL Control\\switch 1104 1120 R90
WINDOW 0 30 57 VRight 2
WINDOW 3 53 -129 VRight 2
SYMATTR InstName U8
SYMATTR Value Ron=0.1m Roff=10meg
SYMBOL cap 1232 1184 R0
SYMATTR InstName C3
SYMATTR Value 10µ
SYMBOL Control\\adder2 1600 1120 R0
SYMATTR InstName U10
SYMBOL Control\\comp 1792 1136 M180
WINDOW 3 25 -53 Left 2
WINDOW 123 25 -81 Left 2
SYMATTR Value Vhigh=1
SYMATTR Value2 Vlow=0
SYMATTR InstName U11
SYMBOL Control\\gain 1504 1248 R0
WINDOW 3 4 67 Bottom 2
SYMATTR Value A=1u
SYMATTR InstName U12
SYMBOL Control\\gain 944 784 R0
WINDOW 3 6 55 Bottom 2
SYMATTR Value A=2
SYMATTR InstName U13
SYMBOL Control\\constant 128 464 R0
WINDOW 3 -7 65 Bottom 2
SYMATTR Value K=5
SYMATTR InstName U5
SYMBOL Control\\adder2 336 464 R0
WINDOW 0 1 -44 Bottom 2
SYMATTR InstName U14
SYMBOL Control\\step 128 624 R0
WINDOW 3 -5 71 Bottom 2
WINDOW 123 3 111 Bottom 2
SYMATTR Value A=0.5
SYMATTR Value2 td=0.5 SR=1e8
SYMATTR InstName U15
TEXT 104 -144 Left 2 !.tran 0 1 0 0.1u uic
TEXT 104 -80 Left 2 !.options reltol=1m
TEXT 1456 632 Left 2 ;ONE-SHOT CIRCUIT
